!_____________________________________________________________________________________________________________________________________________________
!TRANSFORMER
!_____________________________________________________________________________________________________________________________________________________

/* DESCRIÇÃO DO TRANSFORMADOR:
Transformado que abaixa de média para baixa tensão

-DADOS DO TRANSFORMADOR ABAIXADOR-
 ______________________________________________________________________
|Elemento   	| kVA	|    kV-high	| kV-low	|    R-%	| X-%  |
|Transformador	| 150	|    4.16-D	    | 0.480-D	|    1.27   |  2.72| 
|_______________|_______|_______________|___________|___________|______| 

*/ 

!_____________________________________________________________________________________________________________________________________________________
! INICIO SCRIPT

New Transformer.XFM1  
~ Phases=3   
~ Windings=2 
~ Xhl=2.72
~ Wdg=1 
~   Bus=61s       
~   Conn=Delta 
~   kV=4.16    
~   kVA=150    
~   %R=0.635
~ Wdg=2 
~   Bus=610       
~   Conn=Delta 
~   kV=0.48    
~   kVA=150    
~   %R=0.635
